
*KEYWORD
*MAT_PIECEWISE_LINEAR_PLASTICITY_TITLE
$# title
$%Title
$#     mid        ro         e        pr      sigy      etan      fail      tdel
$%mid$%ro$%E$%pr         0         0$%fail
$#       c         p      lcss      lcsr        vp
$%mid
$#    eps1      eps2      eps3      eps4      eps5      eps6      eps7      eps8

$#     es1       es2       es3       es4       es5       es6       es7       es8

$
*DEFINE_CURVE
$#    lcid      sidr       sfa       sfo      offa      offo    dattyp
$%mid         0       1.0       1.0       0.0       0.0
$#                a1                  o1
$%a0$%o0
$%a1$%o1
$%a2$%o2
$%a3$%o3
$%a4$%o4
$%a5$%o5
$%a6$%o6
$%a7$%o7
$%a8$%o8
$%a9$%o9
$%a10$%o10
$%a11$%o11
$%a12$%o12
$%a13$%o13
$%a14$%o14
$%a15$%o15
$%a16$%o16
$%a17$%o17
$%a18$%o18
$%a19$%o19
$ ... 80 like lines cut
*END
